The example TELEMAC-Gironde 3D is too big to be shared via GitHub.
For now, it can downloaded from this link:
https://sdrive.cnrs.fr/s/i9y3mGqXjkYi2be

